OPT_V8/Brussels_test_1203-1157/powerflow_results_t6.txt
Pandapower Network Debug Info
==================================================

BUS:
       vm_pu  va_degree      p_mw    q_mvar
0   0.993544   0.092758  0.000963  0.000868
1   0.989496   0.151831  0.001444  0.001736
2   0.985865   0.210435  0.001925  0.002604
3   0.990094   0.154817  0.002407  0.003472
4   0.990279   0.178146  0.002888  0.004341
5   0.992550   0.114952  0.003370  0.005209
6   0.990940   0.113294  0.001155  0.000868
7   0.997704   0.015728  0.001733  0.001736
8   0.997989   0.030815  0.002118  0.002604
9   0.999895   0.000381  0.009627  0.008681
10  0.999882   0.000383  0.010590  0.007813
11  0.999873   0.000398  0.011553  0.009549
12  0.999790   0.000731  0.009627  0.005209
13  0.999764   0.000778  0.011553  0.008681
14  0.999773   0.000787  0.012516  0.010417
15  0.999935   0.000324  0.000000  0.000000
16  0.999935   0.000330  0.000000  0.000000
17  0.999794   0.000777  0.000000  0.000000
18  0.999794   0.000786  0.000000  0.000000
19  1.000000   0.000000 -0.038632 -0.039804
20  1.000000   0.000005  0.000000  0.000000
21  1.000000   0.000000 -0.045088 -0.044149
22  1.000000   0.000006  0.000000  0.000000
--------------------------------------------------

LINE:
    p_from_mw  q_from_mvar   p_to_mw  q_to_mvar         pl_mw       ql_mvar  i_from_ka   i_to_ka      i_ka  vm_from_pu  va_from_degree  vm_to_pu  va_to_degree  loading_percent
0    0.038622     0.035804 -0.038619  -0.035802  2.712967e-06  2.115345e-06   0.002027  0.002027  0.002027    1.000000        0.000005  0.999935      0.000324         0.881340
1    0.045078     0.040149 -0.045068  -0.040141  9.801864e-06  7.642674e-06   0.002323  0.002323  0.002323    1.000000        0.000006  0.999794      0.000777         1.010204
2    0.031772     0.026045 -0.031771  -0.026044  1.305320e-06  1.017779e-06   0.001581  0.001581  0.001581    0.999935        0.000324  0.999895      0.000381         0.687559
3    0.009627     0.005209 -0.009627  -0.005209  4.145310e-08  3.232167e-08   0.000421  0.000421  0.000421    0.999794        0.000777  0.999790      0.000731         0.183220
4    0.024069     0.019099 -0.024069  -0.019099  5.164392e-07  4.026762e-07   0.001183  0.001183  0.001183    0.999794        0.000777  0.999773      0.000787         0.514302
5    0.006837     0.008758 -0.006779  -0.008713  5.774404e-05  4.502398e-05   0.016038  0.016038  0.016038    0.999935        0.000330  0.993544      0.092758         6.972875
6    0.004572     0.006114 -0.004527  -0.006078  4.523186e-05  3.526802e-05   0.011021  0.011021  0.011021    0.999794        0.000786  0.992550      0.114952         4.791748
7    0.001737     0.001739 -0.001733  -0.001736  4.084251e-06  3.184558e-06   0.003549  0.003549  0.003549    0.999794        0.000786  0.997704      0.015728         1.542981
8    0.005053     0.006981 -0.005040  -0.006971  1.277462e-05  9.960585e-06   0.012441  0.012441  0.012441    0.999794        0.000786  0.997989      0.030815         5.409291
9   -0.022143    -0.017362  0.022143   0.017363  2.738778e-07  2.135470e-07   0.001083  0.001083  0.001083    0.999882        0.000383  0.999895      0.000381         0.470947
10  -0.011553    -0.009549  0.011553   0.009549  1.099009e-07  8.569157e-08   0.000577  0.000577  0.000577    0.999873        0.000398  0.999882      0.000383         0.250863
11   0.011553     0.008681 -0.011553  -0.008681  1.021811e-07  7.967231e-08   0.000556  0.000556  0.000556    0.999773        0.000787  0.999764      0.000778         0.241892
12  -0.003379    -0.004348  0.003398   0.004362  1.832512e-05  1.428840e-05   0.008033  0.008033  0.008033    0.989496        0.151831  0.993544      0.092758         3.492623
13  -0.002407    -0.003472  0.002419   0.003482  1.215852e-05  9.480196e-06   0.006159  0.006159  0.006159    0.990094        0.154817  0.993544      0.092758         2.677973
14  -0.001925    -0.002604  0.001935   0.002612  9.763372e-06  7.612662e-06   0.004742  0.004742  0.004742    0.985865        0.210435  0.989496      0.151831         2.061696
15   0.002922     0.004367 -0.002888  -0.004341  3.372701e-05  2.629751e-05   0.007599  0.007599  0.007599    0.997989        0.030815  0.990279      0.178146         3.303993
16  -0.001155    -0.000868  0.001157   0.000870  1.851539e-06  1.443675e-06   0.002105  0.002105  0.002105    0.990940        0.113294  0.992550      0.114952         0.915173
--------------------------------------------------

TRAFO:
    p_hv_mw  q_hv_mvar   p_lv_mw  q_lv_mvar    pl_mw  ql_mvar   i_hv_ka   i_lv_ka  vm_hv_pu  va_hv_degree  vm_lv_pu  va_lv_degree  loading_percent
0  0.006847   0.009757 -0.006837  -0.008758  0.00001    0.001  0.000459  0.016038  0.999935      0.000324  0.999935      0.000330         0.119210
1  0.011372   0.015834 -0.011362  -0.014834  0.00001    0.001  0.000750  0.026975  0.999794      0.000777  0.999794      0.000786         0.194982
2  0.038632   0.039804 -0.038622  -0.035804  0.00001    0.004  0.000458  0.002027  1.000000      0.000000  1.000000      0.000005         0.138673
3  0.045088   0.044149 -0.045078  -0.040149  0.00001    0.004  0.000520  0.002323  1.000000      0.000000  1.000000      0.000006         0.157760
--------------------------------------------------
